Version 4
SHEET 1 2424 836
WIRE 1184 -464 1104 -464
WIRE 1328 -464 1264 -464
WIRE 1344 -464 1328 -464
WIRE 1504 -464 1440 -464
WIRE 688 -320 592 -320
WIRE 1104 -320 1104 -464
WIRE 1104 -320 688 -320
WIRE 1152 -320 1104 -320
WIRE 1280 -320 1232 -320
WIRE 1392 -320 1280 -320
WIRE 1504 -320 1504 -464
WIRE 1504 -320 1456 -320
WIRE 1632 -320 1504 -320
WIRE 1728 -320 1712 -320
WIRE 1776 -320 1728 -320
WIRE 1872 -320 1776 -320
WIRE 2160 -320 1872 -320
WIRE 592 -304 592 -320
WIRE 1776 -304 1776 -320
WIRE 1872 -304 1872 -320
WIRE 1328 -272 1328 -464
WIRE 1456 -272 1328 -272
WIRE 1104 -256 1104 -320
WIRE 1584 -256 1104 -256
WIRE 1280 -240 1280 -320
WIRE 2160 -240 2160 -256
WIRE 2336 -240 2160 -240
WIRE 592 -208 592 -224
WIRE 1776 -208 1776 -240
WIRE 1872 -208 1872 -224
WIRE 1232 -160 1072 -160
WIRE 2160 -144 2160 -160
WIRE 1280 -112 1280 -144
WIRE 1280 -112 1184 -112
WIRE 1280 -96 1280 -112
WIRE 2336 -96 2336 -160
WIRE 2336 -96 2224 -96
WIRE 1280 0 1280 -16
WIRE 1280 0 1248 0
WIRE 1280 16 1280 0
WIRE 1072 48 1072 -160
WIRE 1184 48 1184 -112
WIRE 1248 48 1248 0
WIRE 1360 48 1360 -416
WIRE 688 64 688 -320
WIRE 864 64 688 64
WIRE 688 80 688 64
WIRE 864 128 864 64
WIRE 1008 128 864 128
WIRE 1456 128 1456 -272
WIRE 1456 128 1424 128
WIRE 688 176 688 160
WIRE 1008 176 688 176
WIRE 1472 176 1424 176
WIRE 1584 176 1584 -256
WIRE 1584 176 1472 176
WIRE 688 192 688 176
WIRE 1584 192 1584 176
WIRE 1728 208 1728 -320
WIRE 912 224 896 224
WIRE 1008 224 992 224
WIRE 1472 224 1472 176
WIRE 1472 224 1424 224
WIRE 816 272 784 272
WIRE 896 272 896 224
WIRE 896 272 880 272
WIRE 1008 272 896 272
WIRE 1584 272 1584 256
WIRE 1584 272 1424 272
WIRE 688 288 688 272
WIRE 912 320 896 320
WIRE 1008 320 992 320
WIRE 1728 320 1728 288
WIRE 1728 320 1424 320
WIRE 1712 368 1424 368
WIRE 1712 384 1712 368
WIRE 1456 432 1424 432
WIRE 1504 432 1456 432
WIRE 1616 432 1584 432
WIRE 2160 432 2160 -48
WIRE 2160 432 1616 432
WIRE 1456 448 1456 432
WIRE 1616 448 1616 432
WIRE 1712 480 1712 464
WIRE 1072 496 1072 480
WIRE 1200 496 1200 480
WIRE 1312 496 1312 480
WIRE 1456 528 1456 512
WIRE 1616 528 1616 512
WIRE 1200 576 1200 560
WIRE 1312 576 1312 560
WIRE 880 832 880 272
WIRE 2416 832 2416 -96
WIRE 2416 832 880 832
FLAG 1776 -208 0
FLAG 1872 -208 0
FLAG 592 -208 0
FLAG 1872 -320 OUT
FLAG 1200 576 0
FLAG 1456 528 0
FLAG 1616 528 0
FLAG 688 288 0
FLAG 896 320 0
FLAG 1312 576 0
FLAG 1072 496 0
FLAG 784 272 0
FLAG 592 -320 IN
FLAG 1280 16 0
FLAG 1712 480 0
SYMBOL res 896 240 R270
WINDOW 0 32 56 VTop 2
WINDOW 3 0 56 VBottom 2
SYMATTR InstName R1
SYMATTR Value 100K
SYMBOL cap 1392 -304 R270
WINDOW 0 32 32 VTop 2
WINDOW 3 0 32 VBottom 2
SYMATTR InstName C1
SYMATTR Value 34µ
SYMATTR SpiceLine Rser=2m
SYMBOL LT8714 1216 256 R0
SYMATTR InstName U2
SYMATTR Description Synchronous Boost/Inverting DC/DC Converter with Soft-Start
SYMBOL ind2 1136 -304 R270
WINDOW 0 32 56 VTop 2
WINDOW 3 5 56 VBottom 2
SYMATTR InstName L1
SYMATTR Value 10µ
SYMATTR Type ind
SYMATTR SpiceLine Rser=13.9m
SYMBOL ind2 1728 -304 M270
WINDOW 0 32 56 VTop 2
WINDOW 3 5 56 VBottom 2
SYMATTR InstName L2
SYMATTR Value 10µ
SYMATTR Type ind
SYMATTR SpiceLine Rser=13.9m
SYMBOL res 1264 -112 R0
WINDOW 3 29 80 Left 2
SYMATTR Value 2.5m
SYMATTR InstName R2
SYMBOL res 1168 -448 R270
WINDOW 0 32 56 VTop 2
WINDOW 3 0 56 VBottom 2
SYMATTR InstName R3
SYMATTR Value 6m
SYMBOL NMOS 1232 -240 R0
WINDOW 3 41 104 Right 2
SYMATTR Value BSC093N04LS
SYMATTR InstName Q1
SYMBOL PMOS 1440 -416 M270
WINDOW 0 54 37 VTop 2
WINDOW 3 -14 76 VLeft 2
WINDOW 123 -42 69 VLeft 2
SYMATTR InstName Q2
SYMATTR Value Si4401DY
SYMATTR Value2 m=2
SYMBOL cap 1184 496 R0
SYMATTR InstName C2
SYMATTR Value 47n
SYMBOL cap 1296 496 R0
SYMATTR InstName C3
SYMATTR Value 10n
SYMBOL cap 1440 448 R0
SYMATTR InstName C4
SYMATTR Value 100p
SYMBOL cap 1600 448 R0
SYMATTR InstName C5
SYMATTR Value 10n
SYMBOL res 1488 448 R270
WINDOW 0 32 56 VTop 2
WINDOW 3 0 56 VBottom 2
SYMATTR InstName R4
SYMATTR Value 4.75K
SYMBOL res 1008 304 R90
WINDOW 0 0 56 VBottom 2
WINDOW 3 32 56 VTop 2
SYMATTR InstName R5
SYMATTR Value 178K
SYMBOL res 672 176 R0
SYMATTR InstName R6
SYMATTR Value 10K
SYMBOL res 672 64 R0
SYMATTR InstName R7
SYMATTR Value 51.1K
SYMBOL cap 880 256 R90
WINDOW 0 0 32 VBottom 2
WINDOW 3 32 32 VTop 2
SYMATTR InstName C6
SYMATTR Value 2.2µ
SYMBOL cap 1760 -304 R0
SYMATTR InstName C7
SYMATTR Value 200µ
SYMATTR SpiceLine Rser=1m
SYMBOL cap 1568 192 R0
SYMATTR InstName C8
SYMATTR Value 2.2µ
SYMBOL res 1712 192 R0
SYMATTR InstName R8
SYMATTR Value 73.2K
SYMBOL VOLTAGE 592 -320 R0
WINDOW 123 0 0 Left 2
WINDOW 39 24 44 Left 2
SYMATTR InstName V1
SYMATTR Value 12
SYMBOL VOLTAGE 1712 368 R0
WINDOW 123 0 0 Left 2
WINDOW 39 24 44 Left 2
SYMATTR InstName V2
SYMATTR Value PWL(0 0 10u 0 50u 0.1 3m 0.1 4m 1)
SYMBOL res 1856 -320 R0
SYMATTR InstName Rload1
SYMATTR Value 1
SYMBOL diode 2144 -320 R0
SYMATTR InstName D1
SYMBOL pnp 2224 -48 R180
SYMATTR InstName Q3
SYMBOL res 2144 -256 R0
SYMATTR InstName R9
SYMATTR Value 24.9k
SYMBOL res 2432 -112 R90
WINDOW 0 0 56 VBottom 2
WINDOW 3 32 56 VTop 2
SYMATTR InstName R10
SYMATTR Value 24.9k
SYMBOL res 2352 -144 R180
WINDOW 0 36 76 Left 2
WINDOW 3 36 40 Left 2
SYMATTR InstName R11
SYMATTR Value 49.9k
TEXT 1688 560 Left 2 !.tran 5m startup
TEXT 1840 -416 Bottom 2 !K1 L1 L2 .985
TEXT 1312 608 Top 2 ;SS Cap 10nF for faster simulation
