Version 4
SHEET 1 10964 10608
WIRE 5152 3440 5008 3440
WIRE 5312 3440 5152 3440
WIRE 5488 3440 5312 3440
WIRE 5600 3440 5488 3440
WIRE 5696 3440 5600 3440
WIRE 5824 3440 5696 3440
WIRE 5872 3440 5824 3440
WIRE 5984 3440 5952 3440
WIRE 6096 3440 5984 3440
WIRE 6432 3440 6192 3440
WIRE 6576 3440 6432 3440
WIRE 6704 3440 6576 3440
WIRE 6928 3440 6784 3440
WIRE 7072 3440 6928 3440
WIRE 7312 3440 7072 3440
WIRE 7520 3440 7408 3440
WIRE 7552 3440 7520 3440
WIRE 7664 3440 7632 3440
WIRE 7792 3440 7664 3440
WIRE 7872 3440 7792 3440
WIRE 8064 3440 7872 3440
WIRE 8240 3440 8064 3440
WIRE 5008 3456 5008 3440
WIRE 7872 3456 7872 3440
WIRE 8064 3456 8064 3440
WIRE 5152 3472 5152 3440
WIRE 5312 3472 5312 3440
WIRE 6576 3472 6576 3440
WIRE 6928 3472 6928 3440
WIRE 8240 3472 8240 3440
WIRE 5008 3552 5008 3536
WIRE 5152 3552 5152 3536
WIRE 5312 3552 5312 3536
WIRE 6528 3552 6512 3552
WIRE 6992 3552 6976 3552
WIRE 7872 3552 7872 3520
WIRE 8064 3552 8064 3520
WIRE 8240 3568 8240 3552
WIRE 6576 3584 6576 3568
WIRE 6752 3584 6576 3584
WIRE 6928 3584 6928 3568
WIRE 6928 3584 6752 3584
WIRE 6752 3600 6752 3584
WIRE 6752 3600 6640 3600
WIRE 6752 3616 6752 3600
WIRE 6992 3632 6992 3552
WIRE 6512 3648 6512 3552
WIRE 6640 3712 6640 3600
WIRE 6752 3712 6752 3696
WIRE 6848 3712 6752 3712
WIRE 5824 3728 5824 3440
WIRE 6176 3728 6176 3488
WIRE 6752 3728 6752 3712
WIRE 6848 3728 6848 3712
WIRE 7328 3728 7328 3488
WIRE 7520 3728 7520 3440
WIRE 6640 3824 6640 3792
WIRE 6672 3824 6640 3824
WIRE 6752 3824 6736 3824
WIRE 6768 3824 6752 3824
WIRE 6848 3824 6848 3808
WIRE 6848 3824 6832 3824
WIRE 6752 3840 6752 3824
WIRE 6544 3888 6304 3888
WIRE 7408 3888 6608 3888
WIRE 6304 3952 6304 3888
WIRE 6336 3952 6304 3952
WIRE 6432 3952 6432 3440
WIRE 6432 3952 6400 3952
WIRE 6512 3952 6512 3728
WIRE 6560 3952 6512 3952
WIRE 6992 3952 6992 3712
WIRE 6992 3952 6944 3952
WIRE 7072 3952 7072 3440
WIRE 7104 3952 7072 3952
WIRE 7200 3952 7168 3952
WIRE 7232 3952 7200 3952
WIRE 7408 3952 7408 3888
WIRE 7408 3952 7296 3952
WIRE 6032 3968 6032 3952
WIRE 6640 3968 6640 3824
WIRE 6688 3968 6640 3968
WIRE 6848 3968 6848 3824
WIRE 6848 3968 6816 3968
WIRE 6176 4000 6176 3808
WIRE 6304 4000 6304 3952
WIRE 6432 4000 6432 3952
WIRE 6560 4000 6560 3952
WIRE 6688 4000 6688 3968
WIRE 6816 4000 6816 3968
WIRE 6944 4000 6944 3952
WIRE 7072 4000 7072 3952
WIRE 7200 4000 7200 3952
WIRE 7328 4000 7328 3808
WIRE 5984 4064 5984 3440
WIRE 6032 4064 6032 4032
WIRE 6032 4064 5984 4064
WIRE 6128 4064 6032 4064
WIRE 7520 4064 7520 3808
WIRE 7520 4064 7376 4064
WIRE 7792 4112 7792 3440
WIRE 7968 4112 7792 4112
WIRE 5824 4128 5824 3808
WIRE 6032 4128 5824 4128
WIRE 6128 4128 6032 4128
WIRE 7520 4128 7376 4128
WIRE 7664 4128 7664 3440
WIRE 7664 4128 7520 4128
WIRE 5600 4144 5600 3440
WIRE 7968 4144 7968 4112
WIRE 7792 4160 7792 4112
WIRE 5696 4192 5696 3440
WIRE 6128 4192 5696 4192
WIRE 5600 4256 5600 4224
WIRE 6128 4256 5600 4256
WIRE 7792 4256 7792 4240
WIRE 7792 4256 7376 4256
WIRE 7968 4256 7968 4208
WIRE 7968 4256 7792 4256
WIRE 7792 4272 7792 4256
WIRE 7968 4272 7968 4256
WIRE 5600 4304 5600 4256
WIRE 6000 4304 5984 4304
WIRE 6096 4304 6080 4304
WIRE 6112 4304 6096 4304
WIRE 6112 4320 6112 4304
WIRE 6128 4320 6112 4320
WIRE 7408 4320 7408 3952
WIRE 7408 4320 7376 4320
WIRE 7792 4368 7792 4352
WIRE 7968 4368 7968 4336
WIRE 7968 4368 7792 4368
WIRE 5904 4384 5888 4384
WIRE 5984 4384 5984 4304
WIRE 5984 4384 5968 4384
WIRE 6064 4384 5984 4384
WIRE 6128 4384 6064 4384
WIRE 7408 4384 7408 4320
WIRE 7408 4384 7376 4384
WIRE 7472 4384 7408 4384
WIRE 7552 4384 7536 4384
WIRE 7792 4384 7792 4368
WIRE 5600 4400 5600 4384
WIRE 5488 4432 5488 3440
WIRE 6128 4448 6064 4448
WIRE 8240 4448 7376 4448
WIRE 6128 4512 5776 4512
WIRE 8048 4512 7376 4512
WIRE 5488 4560 5488 4512
WIRE 5776 4560 5776 4512
WIRE 5776 4560 5488 4560
WIRE 6016 4576 5984 4576
WIRE 6128 4576 6096 4576
WIRE 7760 4576 7376 4576
WIRE 7808 4576 7760 4576
WIRE 7952 4576 7888 4576
WIRE 5488 4592 5488 4560
WIRE 7760 4592 7760 4576
WIRE 7952 4592 7952 4576
WIRE 8048 4592 8048 4512
WIRE 8240 4592 8240 4448
WIRE 5728 4640 5728 4624
WIRE 5920 4640 5888 4640
WIRE 6128 4640 5984 4640
WIRE 7584 4640 7376 4640
WIRE 5728 4656 5728 4640
WIRE 7584 4656 7584 4640
WIRE 7760 4672 7760 4656
WIRE 7952 4672 7952 4656
WIRE 5488 4704 5488 4672
WIRE 6128 4704 5872 4704
WIRE 7424 4704 7376 4704
WIRE 7424 4720 7424 4704
WIRE 8048 4736 8048 4672
WIRE 8240 4736 8240 4672
WIRE 7584 4752 7584 4720
WIRE 5728 4784 5728 4736
WIRE 5872 4784 5872 4704
WIRE 5872 4784 5728 4784
WIRE 6528 4784 6528 4768
WIRE 6960 4784 6960 4768
WIRE 6672 4800 6672 4768
WIRE 5728 4816 5728 4784
WIRE 7104 4816 7104 4768
WIRE 7248 4816 7248 4768
WIRE 7248 4816 7104 4816
WIRE 7424 4816 7424 4784
WIRE 8048 4832 8048 4800
WIRE 8240 4832 8240 4800
WIRE 7248 4848 7248 4816
WIRE 5728 4928 5728 4896
WIRE 6240 4944 6240 4768
WIRE 6464 4944 6240 4944
WIRE 6672 4944 6672 4880
WIRE 6672 4944 6464 4944
WIRE 6464 4992 6464 4944
WIRE 6464 5008 6464 4992
FLAG 5600 4400 0
FLAG 5888 4384 0
FLAG 5888 4640 0
FLAG 6528 4784 0
FLAG 6752 3728 0
FLAG 6752 3840 0
FLAG 6960 4784 0
FLAG 6032 3952 0
FLAG 8240 4832 0
FLAG 8048 4832 0
FLAG 7584 4752 0
FLAG 5488 4704 0
FLAG 7552 4384 0
FLAG 6064 4448 0
FLAG 5728 4928 0
FLAG 5728 4640 IN
FLAG 6064 4384 LDO33
FLAG 6096 4304 swen
FLAG 5008 3552 0
FLAG 5008 3440 IN
FLAG 5312 3552 0
FLAG 5152 3552 0
FLAG 8240 3440 OUT
FLAG 7872 3552 0
FLAG 8064 3552 0
FLAG 7792 4384 0
FLAG 7760 4672 0
FLAG 7952 4672 0
FLAG 6464 4992 LDO33
FLAG 8240 3568 0
FLAG 5984 4576 0
FLAG 7248 4848 0
FLAG 7424 4816 0
SYMBOL res 6160 3712 R0
SYMATTR InstName R1
SYMATTR Value 1
SYMBOL res 6976 3616 R0
SYMATTR InstName R2
SYMATTR Value 1
SYMBOL res 7312 3712 R0
SYMATTR InstName R3
SYMATTR Value 1
SYMBOL res 6624 3696 R0
SYMATTR InstName R5
SYMATTR Value 10
SYMBOL res 6832 3712 R0
SYMATTR InstName R6
SYMATTR Value 10
SYMBOL cap 6736 3808 R90
WINDOW 0 0 32 VBottom 2
WINDOW 3 32 32 VTop 2
SYMATTR InstName C1
SYMATTR Value 1n
SYMBOL cap 6832 3808 R90
WINDOW 0 0 32 VBottom 2
WINDOW 3 32 32 VTop 2
SYMATTR InstName C2
SYMATTR Value 1n
SYMBOL cap 6400 3936 R90
WINDOW 0 0 32 VBottom 2
WINDOW 3 32 32 VTop 2
SYMATTR InstName C3
SYMATTR Value 0.22µ
SYMBOL cap 7168 3936 R90
WINDOW 0 0 32 VBottom 2
WINDOW 3 32 32 VTop 2
SYMATTR InstName C4
SYMATTR Value 0.22µ
SYMBOL cap 5968 4368 R90
WINDOW 0 0 32 VBottom 2
WINDOW 3 32 32 VTop 2
SYMATTR InstName C5
SYMATTR Value 4.7µ
SYMBOL res 5584 4288 R0
SYMATTR InstName R7
SYMATTR Value 10K
SYMBOL cap 5984 4624 R90
WINDOW 0 0 32 VBottom 2
WINDOW 3 32 32 VTop 2
SYMATTR InstName C7
SYMATTR Value 10n
SYMBOL cap 6016 4064 R0
WINDOW 0 23 13 Left 2
WINDOW 3 34 35 Left 2
SYMATTR InstName C8
SYMATTR Value 47n
SYMBOL diode 6608 3872 R90
WINDOW 0 0 32 VBottom 2
WINDOW 3 32 32 VTop 2
SYMATTR InstName D1
SYMATTR Value MURS120
SYMBOL diode 7296 3936 R90
WINDOW 0 0 32 VBottom 2
WINDOW 3 32 32 VTop 2
SYMATTR InstName D2
SYMATTR Value MURS120
SYMBOL res 7504 3712 R0
SYMATTR InstName R9
SYMATTR Value 22
SYMBOL res 5472 4416 R0
SYMATTR InstName R12
SYMATTR Value 562K
SYMBOL res 5472 4576 R0
SYMATTR InstName R13
SYMATTR Value 20K
SYMBOL res 6656 4784 R0
SYMATTR InstName R14
SYMATTR Value 46.4K
SYMBOL res 6496 3632 R0
SYMATTR InstName R16
SYMATTR Value 1
SYMBOL cap 6016 4032 M180
WINDOW 0 24 56 Left 2
WINDOW 3 24 8 Left 2
SYMATTR InstName C9
SYMATTR Value 100n
SYMBOL res 5808 3712 R0
SYMATTR InstName R17
SYMATTR Value 100
SYMBOL res 5584 4128 R0
SYMATTR InstName R18
SYMATTR Value 237K
SYMBOL cap 7504 4128 M180
WINDOW 0 28 50 Left 2
WINDOW 3 37 30 Left 2
SYMATTR InstName C10
SYMATTR Value 220n
SYMBOL cap 8224 4736 R0
WINDOW 3 40 35 Left 2
WINDOW 123 27 59 Left 2
SYMATTR Value 10n
SYMATTR Value2 Rpar=17.4K
SYMATTR InstName C16
SYMBOL cap 8032 4736 R0
WINDOW 3 40 35 Left 2
WINDOW 123 23 58 Left 2
SYMATTR Value 10n
SYMATTR Value2 Rpar=17.4K
SYMATTR InstName C17
SYMBOL cap 7568 4656 R0
WINDOW 3 40 35 Left 2
WINDOW 123 24 62 Left 2
SYMATTR Value 10n
SYMATTR Value2 Rpar=10K
SYMATTR InstName C19
SYMBOL LT8708 6752 4384 R0
SYMATTR InstName U1
SYMBOL cap 7536 4368 R90
WINDOW 0 0 32 VBottom 2
WINDOW 3 32 32 VTop 2
SYMATTR InstName C22
SYMATTR Value 4.7µ
SYMBOL res 8224 4576 R0
SYMATTR InstName R30
SYMATTR Value 200
SYMBOL res 8032 4576 R0
SYMATTR InstName R31
SYMATTR Value 200
SYMBOL res 5712 4640 R0
SYMATTR InstName R22
SYMATTR Value 562K
SYMBOL res 5712 4800 R0
SYMATTR InstName R23
SYMATTR Value 20K
SYMBOL res 6096 4288 R90
WINDOW 0 0 56 VBottom 2
WINDOW 3 32 56 VTop 2
SYMATTR InstName R24
SYMATTR Value 46.4K
SYMBOL voltage 5008 3440 R0
WINDOW 123 0 0 Left 2
WINDOW 39 0 0 Left 2
SYMATTR InstName Vin1
SYMATTR Value 48V
SYMBOL cap 5296 3472 R0
WINDOW 123 25 91 Left 2
SYMATTR Value2 x3
SYMATTR InstName Cinb1
SYMATTR Value 33u
SYMATTR SpiceLine Rser=36m Lser=3.8n
SYMBOL cap 5136 3472 R0
WINDOW 123 25 91 Left 2
SYMATTR Value2 x2
SYMATTR InstName Cinc1
SYMATTR Value 10u
SYMATTR SpiceLine Rser=8m Lser=2n
SYMBOL res 6768 3712 R180
WINDOW 0 36 76 Left 2
WINDOW 3 36 40 Left 2
SYMATTR InstName Rsense1
SYMATTR Value 7m
SYMBOL res 5968 3424 R90
WINDOW 0 0 56 VBottom 2
WINDOW 3 32 56 VTop 2
SYMATTR InstName R15
SYMATTR Value 6m
SYMBOL cap 7856 3456 R0
WINDOW 123 36 88 Left 2
SYMATTR Value2 x2
SYMATTR InstName Coc1
SYMATTR Value 10u
SYMATTR SpiceLine Rser=7.74m
SYMBOL cap 8048 3456 R0
WINDOW 123 33 91 Left 2
SYMATTR Value2 x3
SYMATTR InstName Cob1
SYMATTR Value 33u
SYMATTR SpiceLine Rser=36m
SYMBOL res 7648 3424 R90
WINDOW 0 0 56 VBottom 2
WINDOW 3 32 56 VTop 2
SYMATTR InstName RoutSense1
SYMATTR Value 8m
SYMBOL nmos 6096 3488 R270
WINDOW 0 71 11 VRight 2
WINDOW 3 73 47 VRight 2
SYMATTR InstName Q1
SYMATTR Value BSC047N08NS3G
SYMBOL nmos 7408 3488 M270
WINDOW 0 103 88 VLeft 2
WINDOW 3 73 278 VLeft 2
SYMATTR InstName Q3
SYMATTR Value BSC047N08NS3G
SYMBOL nmos 6976 3472 M0
WINDOW 3 -202 51 Left 2
SYMATTR Value BSC047N08NS3G
SYMATTR InstName Q4
SYMBOL res 7776 4144 R0
SYMATTR InstName RfbTop1
SYMATTR Value 464k
SYMBOL res 7776 4256 R0
SYMATTR InstName RfbBot1
SYMATTR Value 12.1k
SYMBOL cap 7952 4144 R0
SYMATTR InstName CfbTop1
SYMATTR Value 0p
SYMBOL cap 7952 4272 R0
SYMATTR InstName CfbBot1
SYMATTR Value 0p
SYMBOL cap 7968 4592 M0
SYMATTR InstName Cth1
SYMATTR Value 6800p
SYMBOL res 7792 4560 M90
WINDOW 0 0 56 VBottom 2
WINDOW 3 32 56 VTop 2
SYMATTR InstName Rth1
SYMATTR Value 10k
SYMBOL cap 7776 4592 M0
SYMATTR InstName Cthp1
SYMATTR Value 220p
SYMBOL ind 6688 3456 R270
WINDOW 0 32 56 VTop 2
WINDOW 3 5 56 VBottom 2
SYMATTR InstName Lo1
SYMATTR Value 22u
SYMATTR SpiceLine Rser=14.5m
SYMBOL nmos 6528 3472 R0
SYMATTR InstName Q2
SYMATTR Value BSC047N08NS3G
SYMBOL current 8240 3472 R0
WINDOW 3 24 80 Invisible 2
WINDOW 123 0 0 Left 2
WINDOW 39 0 0 Left 2
SYMATTR Value PWL(0 0 1m 0 2.01m 2.4 3m 2.4)
SYMATTR InstName LoadStep1
SYMBOL res 6000 4592 R270
WINDOW 0 41 37 VTop 2
WINDOW 3 0 56 VBottom 2
SYMATTR InstName Rfreq_1
SYMATTR Value 215k
SYMBOL cap 7408 4720 R0
WINDOW 3 40 35 Left 2
WINDOW 123 24 62 Left 2
SYMATTR Value 10n
SYMATTR Value2 Rpar=10K
SYMATTR InstName C6
TEXT 7304 5032 Left 2 !.tran 10m startup
TEXT 6736 3336 Center 3 ;LT8708 80V Synchronous 4-switch buck-boost DC/DC Contoller with Bidirectional Capability
