Version 4
SHEET 1 884 680
WIRE 256 112 -176 112
WIRE -176 128 -176 112
WIRE 256 128 256 112
WIRE 144 176 -64 176
WIRE 400 176 368 176
WIRE -64 208 -64 176
WIRE -176 224 -176 208
WIRE 400 256 368 256
WIRE 480 256 400 256
WIRE 592 256 560 256
WIRE 656 256 592 256
WIRE 656 320 656 256
WIRE -64 336 -64 288
WIRE 144 336 -64 336
WIRE 384 336 368 336
WIRE 480 336 448 336
WIRE -64 400 -64 336
WIRE 256 400 256 384
WIRE 256 400 -64 400
WIRE 384 416 384 336
WIRE 384 416 352 416
WIRE 352 448 352 416
WIRE 656 448 656 400
WIRE 672 448 656 448
WIRE 672 496 672 448
FLAG 256 400 0
FLAG 480 336 0
FLAG 400 256 OUT
FLAG -176 224 0
FLAG 352 528 0
FLAG 672 496 0
FLAG 592 336 0
SYMBOL cap 448 320 R90
WINDOW 0 0 32 VBottom 2
WINDOW 3 32 32 VTop 2
SYMATTR InstName C1
SYMATTR Value .1µ
SYMBOL voltage -176 112 R0
WINDOW 123 0 0 Left 0
WINDOW 39 0 0 Left 0
SYMATTR InstName V3
SYMATTR Value 12
SYMBOL opamps\\LT1999-50 256 256 R0
SYMATTR InstName U1
SYMBOL voltage 352 432 R0
WINDOW 123 0 0 Left 0
WINDOW 39 0 0 Left 0
SYMATTR InstName V1
SYMATTR Value 1.3
SYMBOL res 640 304 R0
SYMATTR InstName R1
SYMATTR Value 12.14k
SYMBOL voltage -64 192 R0
WINDOW 123 0 0 Left 0
WINDOW 39 0 0 Left 0
SYMATTR InstName V2
SYMATTR Value 45m
SYMBOL res 576 240 R90
WINDOW 0 0 56 VBottom 2
WINDOW 3 32 56 VTop 2
SYMATTR InstName R2
SYMATTR Value 503
SYMBOL res 608 352 R180
WINDOW 0 36 76 Left 2
WINDOW 3 36 40 Left 2
SYMATTR InstName R3
SYMATTR Value 297
TEXT 416 432 Left 2 !.tran 3m
