Version 4
SHEET 1 1708 852
WIRE -272 -16 -736 -16
WIRE -160 -16 -272 -16
WIRE -64 -16 -160 -16
WIRE -48 -16 -64 -16
WIRE 64 -16 48 -16
WIRE 176 -16 64 -16
WIRE 320 -16 272 -16
WIRE 416 -16 320 -16
WIRE 512 -16 416 -16
WIRE 768 -16 512 -16
WIRE -736 0 -736 -16
WIRE 512 0 512 -16
WIRE 768 0 768 -16
WIRE 32 64 32 32
WIRE -736 96 -736 80
WIRE 512 96 512 64
WIRE 768 96 768 80
WIRE 416 112 416 -16
WIRE 32 144 16 144
WIRE 192 144 192 32
WIRE 192 144 32 144
WIRE 16 160 16 144
WIRE 16 240 -16 240
WIRE -80 288 -80 240
WIRE -64 320 -64 -16
WIRE 64 320 64 -16
WIRE 192 320 192 144
WIRE 320 320 320 -16
WIRE 416 320 416 176
WIRE -272 432 -272 -16
WIRE -160 448 -160 -16
WIRE -112 448 -160 448
WIRE -272 592 -272 496
WIRE 128 592 416 320
WIRE 128 592 128 576
WIRE 128 592 -272 592
WIRE 128 720 128 592
WIRE 128 832 128 800
FLAG 128 832 0
FLAG 512 96 0
FLAG -736 96 0
FLAG 768 96 0
FLAG -80 288 0
SYMBOL voltage -736 -16 R0
WINDOW 123 24 138 Left 2
WINDOW 39 24 124 Left 2
SYMATTR SpiceLine Rser=0.05
SYMATTR Value PWL(0 0 1n 12)
SYMATTR InstName V1
SYMBOL cap 400 112 R0
SYMATTR InstName C1
SYMATTR Value 1.5µ
SYMBOL res 112 704 R0
SYMATTR InstName R1
SYMATTR Value 1K
SYMBOL cap 496 0 R0
SYMATTR InstName C2
SYMATTR Value 300µ
SYMATTR SpiceLine Rser=.01
SYMBOL LTC4359 128 448 R0
SYMATTR InstName U1
SYMBOL TVSdiode -288 432 R0
SYMATTR InstName D1
SYMATTR Value SMBJ24CA
SYMBOL nmos -48 32 R270
SYMATTR InstName M1
SYMATTR Value BSC067N06LS3
SYMBOL res 16 48 R0
SYMATTR InstName R2
SYMATTR Value 10
SYMBOL voltage 768 -16 R0
WINDOW 123 24 138 Left 2
WINDOW 39 24 124 Left 2
SYMATTR SpiceLine Rser=1
SYMATTR Value PWL(0 0 1n 0 20m 0 20.001m 36)
SYMATTR InstName V2
SYMBOL res 0 144 R0
SYMATTR InstName R3
SYMATTR Value 10k
SYMBOL cap -16 224 R90
WINDOW 0 0 32 VBottom 2
WINDOW 3 32 32 VTop 2
SYMATTR InstName C3
SYMATTR Value 1n
SYMBOL nmos 272 32 M270
SYMATTR InstName M2
SYMATTR Value BSC067N06LS3
TEXT 424 344 Left 2 !.tran 40m
